test/data/enwl/networks/network_4/Feeder_2/Loads.dss
New Load.LOAD1 Phases=1 Bus1=157.1 kV=0.23 kW=1 PF=0.95
New Load.LOAD2 Phases=1 Bus1=162.2 kV=0.23 kW=1 PF=0.95
New Load.LOAD3 Phases=1 Bus1=170.3 kV=0.23 kW=1 PF=0.95
New Load.LOAD4 Phases=1 Bus1=208.1 kV=0.23 kW=1 PF=0.95
New Load.LOAD5 Phases=1 Bus1=270.2 kV=0.23 kW=1 PF=0.95
New Load.LOAD6 Phases=1 Bus1=328.3 kV=0.23 kW=1 PF=0.95
New Load.LOAD7 Phases=1 Bus1=331.1 kV=0.23 kW=1 PF=0.95
New Load.LOAD8 Phases=1 Bus1=343.1 kV=0.23 kW=1 PF=0.95
New Load.LOAD9 Phases=1 Bus1=348.2 kV=0.23 kW=1 PF=0.95
New Load.LOAD10 Phases=1 Bus1=357.3 kV=0.23 kW=1 PF=0.95
New Load.LOAD11 Phases=1 Bus1=365.2 kV=0.23 kW=1 PF=0.95
New Load.LOAD12 Phases=1 Bus1=372.1 kV=0.23 kW=1 PF=0.95
New Load.LOAD13 Phases=1 Bus1=376.3 kV=0.23 kW=1 PF=0.95
New Load.LOAD14 Phases=1 Bus1=379.2 kV=0.23 kW=1 PF=0.95
New Load.LOAD15 Phases=1 Bus1=386.1 kV=0.23 kW=1 PF=0.95
New Load.LOAD16 Phases=1 Bus1=390.2 kV=0.23 kW=1 PF=0.95